*SPEF "ieee 1481-1999"
*DESIGN "mbist_ctrl"
*DATE "19:24:55 Monday May 11, 2026"
*VENDOR "The OpenROAD Project"
*PROGRAM "OpenROAD"
*VERSION "edf00dff99f6c40d67a30c0e22a8191c5d2ed9d6"
*DESIGN_FLOW "NAME_SCOPE LOCAL" "PIN_CAP NONE"
*DIVIDER /
*DELIMITER :
*BUS_DELIMITER []
*T_UNIT 1 NS
*C_UNIT 1 PF
*R_UNIT 1 OHM
*L_UNIT 1 HENRY

*NAME_MAP
*3 clk
*4 diag_addr[0]
*5 diag_addr[1]
*6 diag_addr[2]
*7 diag_addr[3]
*8 diag_addr[4]
*9 diag_addr[5]
*10 diag_addr[6]
*11 diag_addr[7]
*12 done
*13 mem_addr[0]
*14 mem_addr[1]
*15 mem_addr[2]
*16 mem_addr[3]
*17 mem_addr[4]
*18 mem_addr[5]
*19 mem_addr[6]
*20 mem_addr[7]
*21 mem_ce
*22 mem_din[0]
*23 mem_din[1]
*24 mem_din[2]
*25 mem_din[3]
*26 mem_din[4]
*27 mem_din[5]
*28 mem_din[6]
*29 mem_din[7]
*30 mem_dout[0]
*31 mem_dout[1]
*32 mem_dout[2]
*33 mem_dout[3]
*34 mem_dout[4]
*35 mem_dout[5]
*36 mem_dout[6]
*37 mem_dout[7]
*38 mem_we
*39 pass_fail
*40 rst
*41 start
*42 _000_
*43 _001_
*44 _002_
*45 _003_
*46 _004_
*47 _005_
*48 _006_
*49 _007_
*50 _008_
*51 _009_
*52 _010_
*53 _011_
*54 _012_
*55 _013_
*56 _014_
*57 _015_
*58 _016_
*59 _017_
*60 _018_
*61 _019_
*62 _020_
*63 _021_
*64 _022_
*65 _023_
*66 _024_
*67 _025_
*68 _026_
*69 _027_
*70 _028_
*71 _029_
*72 _030_
*73 _031_
*74 _032_
*75 _033_
*76 _034_
*77 _035_
*78 _036_
*79 _037_
*80 _038_
*81 _039_
*82 _040_
*83 _041_
*84 _042_
*85 _043_
*86 _044_
*87 _045_
*88 _046_
*89 _047_
*90 _048_
*91 _049_
*92 _050_
*93 _051_
*94 _052_
*95 _053_
*96 _054_
*97 _055_
*98 _056_
*99 _057_
*100 _058_
*101 _059_
*102 _060_
*103 _061_
*104 _062_
*105 _063_
*106 _064_
*107 _065_
*108 _066_
*109 _067_
*110 _068_
*111 _069_
*112 _070_
*113 _071_
*114 _072_
*115 _073_
*116 _074_
*117 _075_
*118 _076_
*119 _077_
*120 _078_
*121 _079_
*122 _080_
*123 _081_
*124 _082_
*125 _083_
*126 _084_
*127 _085_
*128 _086_
*129 _087_
*130 _088_
*131 _089_
*132 _090_
*133 _091_
*134 _092_
*135 _093_
*136 _094_
*137 _095_
*138 _096_
*139 _097_
*140 _098_
*141 _099_
*142 _100_
*143 _101_
*144 _102_
*145 _103_
*146 _104_
*147 _105_
*148 _106_
*149 _107_
*150 _108_
*151 _109_
*152 _110_
*153 _111_
*154 _112_
*155 _113_
*156 _114_
*157 _115_
*158 _116_
*159 _117_
*160 _118_
*161 _119_
*162 _120_
*163 _121_
*164 _122_
*165 _123_
*166 _124_
*167 _125_
*168 _126_
*169 _127_
*170 _128_
*171 _129_
*172 _130_
*173 _131_
*174 _132_
*175 _133_
*176 _134_
*177 _135_
*178 _136_
*179 _137_
*180 _138_
*181 _139_
*182 _140_
*183 _141_
*184 _142_
*185 _143_
*186 _144_
*187 _145_
*188 clknet_0_clk
*189 clknet_2_0__leaf_clk
*190 clknet_2_1__leaf_clk
*191 clknet_2_2__leaf_clk
*192 clknet_2_3__leaf_clk
*193 diag_captured
*194 net1
*195 net10
*196 net11
*197 net12
*198 net13
*199 net14
*200 net15
*201 net16
*202 net17
*203 net18
*204 net19
*205 net2
*206 net20
*207 net21
*208 net22
*209 net23
*210 net24
*211 net25
*212 net26
*213 net27
*214 net28
*215 net29
*216 net3
*217 net30
*218 net31
*219 net32
*220 net33
*221 net34
*222 net35
*223 net36
*224 net37
*225 net38
*226 net39
*227 net4
*228 net40
*229 net41
*230 net42
*231 net43
*232 net44
*233 net45
*234 net46
*235 net47
*236 net48
*237 net49
*238 net5
*239 net50
*240 net51
*241 net52
*242 net53
*243 net54
*244 net55
*245 net56
*246 net57
*247 net58
*248 net59
*249 net6
*250 net60
*251 net61
*252 net62
*253 net63
*254 net64
*255 net65
*256 net66
*257 net67
*258 net68
*259 net69
*260 net7
*261 net70
*262 net71
*263 net72
*264 net8
*265 net9
*266 phase\[0\]
*267 phase\[1\]
*268 phase\[2\]
*269 read_data\[0\]
*270 read_data\[1\]
*271 read_data\[2\]
*272 read_data\[3\]
*273 read_data\[4\]
*274 read_data\[5\]
*275 read_data\[6\]
*276 read_data\[7\]
*277 state\[0\]
*278 state\[1\]
*279 state\[2\]
*280 state\[3\]
*281 state\[4\]
*282 state\[5\]
*283 state\[6\]
*284 FILLER_0_109
*285 FILLER_0_113
*286 FILLER_0_15
*287 FILLER_0_21
*288 FILLER_0_27
*289 FILLER_0_29
*290 FILLER_0_3
*291 FILLER_0_41
*292 FILLER_0_48
*293 FILLER_0_55
*294 FILLER_0_57
*295 FILLER_0_69
*296 FILLER_0_81
*297 FILLER_0_85
*298 FILLER_0_97
*299 FILLER_10_11
*300 FILLER_10_114
*301 FILLER_10_131
*302 FILLER_10_23
*303 FILLER_10_27
*304 FILLER_10_45
*305 FILLER_10_59
*306 FILLER_10_71
*307 FILLER_10_75
*308 FILLER_10_82
*309 FILLER_10_85
*310 FILLER_10_94
*311 FILLER_10_98
*312 FILLER_11_113
*313 FILLER_11_20
*314 FILLER_11_3
*315 FILLER_11_52
*316 FILLER_11_57
*317 FILLER_11_81
*318 FILLER_12_109
*319 FILLER_12_131
*320 FILLER_12_23
*321 FILLER_12_27
*322 FILLER_12_35
*323 FILLER_12_55
*324 FILLER_12_63
*325 FILLER_12_7
*326 FILLER_13_103
*327 FILLER_13_111
*328 FILLER_13_113
*329 FILLER_13_119
*330 FILLER_13_128
*331 FILLER_13_20
*332 FILLER_13_3
*333 FILLER_13_32
*334 FILLER_13_44
*335 FILLER_13_92
*336 FILLER_14_122
*337 FILLER_14_130
*338 FILLER_14_23
*339 FILLER_14_27
*340 FILLER_14_29
*341 FILLER_14_33
*342 FILLER_14_40
*343 FILLER_14_63
*344 FILLER_14_7
*345 FILLER_14_85
*346 FILLER_14_93
*347 FILLER_15_113
*348 FILLER_15_131
*349 FILLER_15_38
*350 FILLER_15_66
*351 FILLER_15_7
*352 FILLER_15_78
*353 FILLER_15_90
*354 FILLER_15_98
*355 FILLER_16_102
*356 FILLER_16_111
*357 FILLER_16_121
*358 FILLER_16_27
*359 FILLER_16_29
*360 FILLER_16_50
*361 FILLER_16_62
*362 FILLER_16_74
*363 FILLER_16_85
*364 FILLER_16_94
*365 FILLER_17_118
*366 FILLER_17_130
*367 FILLER_17_28
*368 FILLER_17_3
*369 FILLER_17_45
*370 FILLER_17_53
*371 FILLER_17_57
*372 FILLER_17_65
*373 FILLER_17_72
*374 FILLER_17_84
*375 FILLER_17_96
*376 FILLER_18_127
*377 FILLER_18_29
*378 FILLER_18_3
*379 FILLER_18_69
*380 FILLER_18_83
*381 FILLER_18_85
*382 FILLER_18_97
*383 FILLER_19_132
*384 FILLER_19_26
*385 FILLER_19_3
*386 FILLER_19_95
*387 FILLER_1_102
*388 FILLER_1_110
*389 FILLER_1_113
*390 FILLER_1_3
*391 FILLER_1_42
*392 FILLER_1_53
*393 FILLER_1_57
*394 FILLER_1_69
*395 FILLER_1_81
*396 FILLER_1_85
*397 FILLER_20_101
*398 FILLER_20_127
*399 FILLER_20_3
*400 FILLER_20_60
*401 FILLER_21_106
*402 FILLER_21_113
*403 FILLER_21_119
*404 FILLER_21_131
*405 FILLER_21_16
*406 FILLER_21_20
*407 FILLER_21_3
*408 FILLER_21_35
*409 FILLER_21_47
*410 FILLER_21_55
*411 FILLER_21_57
*412 FILLER_21_67
*413 FILLER_21_82
*414 FILLER_21_94
*415 FILLER_21_98
*416 FILLER_22_110
*417 FILLER_22_113
*418 FILLER_22_119
*419 FILLER_22_126
*420 FILLER_22_132
*421 FILLER_22_15
*422 FILLER_22_23
*423 FILLER_22_3
*424 FILLER_22_35
*425 FILLER_22_42
*426 FILLER_22_54
*427 FILLER_22_57
*428 FILLER_22_65
*429 FILLER_22_70
*430 FILLER_22_77
*431 FILLER_22_85
*432 FILLER_22_93
*433 FILLER_22_98
*434 FILLER_2_24
*435 FILLER_2_29
*436 FILLER_2_6
*437 FILLER_2_81
*438 FILLER_3_105
*439 FILLER_3_111
*440 FILLER_3_121
*441 FILLER_3_128
*442 FILLER_3_3
*443 FILLER_3_32
*444 FILLER_3_62
*445 FILLER_3_7
*446 FILLER_3_87
*447 FILLER_4_104
*448 FILLER_4_111
*449 FILLER_4_16
*450 FILLER_4_27
*451 FILLER_4_50
*452 FILLER_4_6
*453 FILLER_4_62
*454 FILLER_4_82
*455 FILLER_4_85
*456 FILLER_5_3
*457 FILLER_5_38
*458 FILLER_5_50
*459 FILLER_5_57
*460 FILLER_5_96
*461 FILLER_6_124
*462 FILLER_6_25
*463 FILLER_6_37
*464 FILLER_6_48
*465 FILLER_6_54
*466 FILLER_6_71
*467 FILLER_6_85
*468 FILLER_7_103
*469 FILLER_7_113
*470 FILLER_7_131
*471 FILLER_7_35
*472 FILLER_7_49
*473 FILLER_7_55
*474 FILLER_7_88
*475 FILLER_7_96
*476 FILLER_8_17
*477 FILLER_8_25
*478 FILLER_8_3
*479 FILLER_8_82
*480 FILLER_8_93
*481 FILLER_8_99
*482 FILLER_9_103
*483 FILLER_9_132
*484 FILLER_9_18
*485 FILLER_9_36
*486 FILLER_9_53
*487 FILLER_9_57
*488 FILLER_9_6
*489 FILLER_9_63
*490 FILLER_9_71
*491 PHY_EDGE_ROW_0_Left_23
*492 PHY_EDGE_ROW_0_Right_0
*493 PHY_EDGE_ROW_10_Left_33
*494 PHY_EDGE_ROW_10_Right_10
*495 PHY_EDGE_ROW_11_Left_34
*496 PHY_EDGE_ROW_11_Right_11
*497 PHY_EDGE_ROW_12_Left_35
*498 PHY_EDGE_ROW_12_Right_12
*499 PHY_EDGE_ROW_13_Left_36
*500 PHY_EDGE_ROW_13_Right_13
*501 PHY_EDGE_ROW_14_Left_37
*502 PHY_EDGE_ROW_14_Right_14
*503 PHY_EDGE_ROW_15_Left_38
*504 PHY_EDGE_ROW_15_Right_15
*505 PHY_EDGE_ROW_16_Left_39
*506 PHY_EDGE_ROW_16_Right_16
*507 PHY_EDGE_ROW_17_Left_40
*508 PHY_EDGE_ROW_17_Right_17
*509 PHY_EDGE_ROW_18_Left_41
*510 PHY_EDGE_ROW_18_Right_18
*511 PHY_EDGE_ROW_19_Left_42
*512 PHY_EDGE_ROW_19_Right_19
*513 PHY_EDGE_ROW_1_Left_24
*514 PHY_EDGE_ROW_1_Right_1
*515 PHY_EDGE_ROW_20_Left_43
*516 PHY_EDGE_ROW_20_Right_20
*517 PHY_EDGE_ROW_21_Left_44
*518 PHY_EDGE_ROW_21_Right_21
*519 PHY_EDGE_ROW_22_Left_45
*520 PHY_EDGE_ROW_22_Right_22
*521 PHY_EDGE_ROW_2_Left_25
*522 PHY_EDGE_ROW_2_Right_2
*523 PHY_EDGE_ROW_3_Left_26
*524 PHY_EDGE_ROW_3_Right_3
*525 PHY_EDGE_ROW_4_Left_27
*526 PHY_EDGE_ROW_4_Right_4
*527 PHY_EDGE_ROW_5_Left_28
*528 PHY_EDGE_ROW_5_Right_5
*529 PHY_EDGE_ROW_6_Left_29
*530 PHY_EDGE_ROW_6_Right_6
*531 PHY_EDGE_ROW_7_Left_30
*532 PHY_EDGE_ROW_7_Right_7
*533 PHY_EDGE_ROW_8_Left_31
*534 PHY_EDGE_ROW_8_Right_8
*535 PHY_EDGE_ROW_9_Left_32
*536 PHY_EDGE_ROW_9_Right_9
*537 TAP_TAPCELL_ROW_0_46
*538 TAP_TAPCELL_ROW_0_47
*539 TAP_TAPCELL_ROW_0_48
*540 TAP_TAPCELL_ROW_0_49
*541 TAP_TAPCELL_ROW_10_68
*542 TAP_TAPCELL_ROW_10_69
*543 TAP_TAPCELL_ROW_11_70
*544 TAP_TAPCELL_ROW_11_71
*545 TAP_TAPCELL_ROW_12_72
*546 TAP_TAPCELL_ROW_12_73
*547 TAP_TAPCELL_ROW_13_74
*548 TAP_TAPCELL_ROW_13_75
*549 TAP_TAPCELL_ROW_14_76
*550 TAP_TAPCELL_ROW_14_77
*551 TAP_TAPCELL_ROW_15_78
*552 TAP_TAPCELL_ROW_15_79
*553 TAP_TAPCELL_ROW_16_80
*554 TAP_TAPCELL_ROW_16_81
*555 TAP_TAPCELL_ROW_17_82
*556 TAP_TAPCELL_ROW_17_83
*557 TAP_TAPCELL_ROW_18_84
*558 TAP_TAPCELL_ROW_18_85
*559 TAP_TAPCELL_ROW_19_86
*560 TAP_TAPCELL_ROW_19_87
*561 TAP_TAPCELL_ROW_1_50
*562 TAP_TAPCELL_ROW_1_51
*563 TAP_TAPCELL_ROW_20_88
*564 TAP_TAPCELL_ROW_20_89
*565 TAP_TAPCELL_ROW_21_90
*566 TAP_TAPCELL_ROW_21_91
*567 TAP_TAPCELL_ROW_22_92
*568 TAP_TAPCELL_ROW_22_93
*569 TAP_TAPCELL_ROW_22_94
*570 TAP_TAPCELL_ROW_22_95
*571 TAP_TAPCELL_ROW_2_52
*572 TAP_TAPCELL_ROW_2_53
*573 TAP_TAPCELL_ROW_3_54
*574 TAP_TAPCELL_ROW_3_55
*575 TAP_TAPCELL_ROW_4_56
*576 TAP_TAPCELL_ROW_4_57
*577 TAP_TAPCELL_ROW_5_58
*578 TAP_TAPCELL_ROW_5_59
*579 TAP_TAPCELL_ROW_6_60
*580 TAP_TAPCELL_ROW_6_61
*581 TAP_TAPCELL_ROW_7_62
*582 TAP_TAPCELL_ROW_7_63
*583 TAP_TAPCELL_ROW_8_64
*584 TAP_TAPCELL_ROW_8_65
*585 TAP_TAPCELL_ROW_9_66
*586 TAP_TAPCELL_ROW_9_67
*587 _146_
*588 _147_
*589 _148_
*590 _149_
*591 _150_
*592 _151_
*593 _152_
*594 _153_
*595 _154_
*596 _155_
*597 _156_
*598 _157_
*599 _158_
*600 _159_
*601 _160_
*602 _161_
*603 _162_
*604 _163_
*605 _164_
*606 _165_
*607 _166_
*608 _167_
*609 _168_
*610 _169_
*611 _170_
*612 _171_
*613 _172_
*614 _173_
*615 _174_
*616 _175_
*617 _176_
*618 _177_
*619 _178_
*620 _179_
*621 _180_
*622 _181_
*623 _182_
*624 _183_
*625 _184_
*626 _185_
*627 _186_
*628 _187_
*629 _188_
*630 _189_
*631 _190_
*632 _191_
*633 _192_
*634 _193_
*635 _194_
*636 _195_
*637 _196_
*638 _197_
*639 _198_
*640 _199_
*641 _200_
*642 _201_
*643 _202_
*644 _203_
*645 _204_
*646 _205_
*647 _206_
*648 _207_
*649 _208_
*650 _209_
*651 _210_
*652 _211_
*653 _212_
*654 _213_
*655 _214_
*656 _215_
*657 _216_
*658 _217_
*659 _218_
*660 _219_
*661 _220_
*662 _221_
*663 _222_
*664 _223_
*665 _224_
*666 _225_
*667 _226_
*668 _227_
*669 _228_
*670 _229_
*671 _230_
*672 _231_
*673 _232_
*674 _233_
*675 _234_
*676 _235_
*677 _236_
*678 _237_
*679 _238_
*680 _239_
*681 _240_
*682 _241_
*683 _242_
*684 _243_
*685 _244_
*686 _245_
*687 _246_
*688 _247_
*689 _248_
*690 _249_
*691 _250_
*692 _251_
*693 _252_
*694 _253_
*695 _254_
*696 _255_
*697 _256_
*698 _257_
*699 _258_
*700 _259_
*701 _260_
*702 _261_
*703 _262_
*704 _263_
*705 _264_
*706 _265_
*707 _266_
*708 _267_
*709 _268_
*710 _269_
*711 _270_
*712 _271_
*713 _272_
*714 _273_
*715 _274_
*716 _275_
*717 _276_
*718 _277_
*719 _278_
*720 _279_
*721 _280_
*722 _281_
*723 _282_
*724 _283_
*725 _284_
*726 _285_
*727 _286_
*728 _287_
*729 _288_
*730 _289_
*731 _290_
*732 _291_
*733 _292_
*734 _293_
*735 _294_
*736 _295_
*737 _296_
*738 _297_
*739 _298_
*740 _299_
*741 _300_
*742 _301_
*743 _302_
*744 _303_
*745 _304_
*746 _305_
*747 _306_
*748 _307_
*749 _308_
*750 _309_
*751 _310_
*752 _311_
*753 _312_
*754 _313_
*755 _314_
*756 _315_
*757 _316_
*758 _317_
*759 _318_
*760 _319_
*761 _320_
*762 _321_
*763 _322_
*764 _323_
*765 _324_
*766 _325_
*767 _326_
*768 _327_
*769 _328_
*770 _329_
*771 _330_
*772 _331_
*773 _332_
*774 _333_
*775 _334_
*776 _335_
*777 _336_
*778 _337_
*779 _338_
*780 clkbuf_0_clk
*781 clkbuf_2_0__f_clk
*782 clkbuf_2_1__f_clk
*783 clkbuf_2_2__f_clk
*784 clkbuf_2_3__f_clk
*785 clkload0
*786 clkload1
*787 clkload2
*788 fanout39
*789 fanout40
*790 fanout41
*791 fanout42
*792 fanout43
*793 fanout44
*794 fanout45
*795 fanout46
*796 hold1
*797 hold10
*798 hold11
*799 hold12
*800 hold13
*801 hold14
*802 hold15
*803 hold16
*804 hold17
*805 hold18
*806 hold19
*807 hold2
*808 hold20
*809 hold21
*810 hold22
*811 hold23
*812 hold24
*813 hold25
*814 hold26
*815 hold3
*816 hold4
*817 hold5
*818 hold6
*819 hold7
*820 hold8
*821 hold9
*822 input1
*823 input10
*824 input2
*825 input3
*826 input4
*827 input5
*828 input6
*829 input7
*830 input8
*831 input9
*832 output11
*833 output12
*834 output13
*835 output14
*836 output15
*837 output16
*838 output17
*839 output18
*840 output19
*841 output20
*842 output21
*843 output22
*844 output23
*845 output24
*846 output25
*847 output26
*848 output27
*849 output28
*850 output29
*851 output30
*852 output31
*853 output32
*854 output33
*855 output34
*856 output35
*857 output36
*858 output37
*859 output38

*PORTS
clk I
diag_addr[0] O
diag_addr[1] O
diag_addr[2] O
diag_addr[3] O
diag_addr[4] O
diag_addr[5] O
diag_addr[6] O
diag_addr[7] O
done O
mem_addr[0] O
mem_addr[1] O
mem_addr[2] O
mem_addr[3] O
mem_addr[4] O
mem_addr[5] O
mem_addr[6] O
mem_addr[7] O
mem_ce O
mem_din[0] O
mem_din[1] O
mem_din[2] O
mem_din[3] O
mem_din[4] O
mem_din[5] O
mem_din[6] O
mem_din[7] O
mem_dout[0] I
mem_dout[1] I
mem_dout[2] I
mem_dout[3] I
mem_dout[4] I
mem_dout[5] I
mem_dout[6] I
mem_dout[7] I
mem_we O
pass_fail O
rst I
start I

*D_NET *3 0.00722634
*CONN
*P clk I
*I *780:A I *D sky130_fd_sc_hd__clkbuf_16
*CAP
1 clk 0.00234606
2 *780:A 0.00234606
3 *780:A diag_addr[1] 0.000280683
4 *780:A diag_addr[4] 0.000182022
5 *780:A *587:A 0
6 *780:A *662:A1 0
7 *780:A *662:A2 0.000443492
8 *780:A *665:A1 9.9535e-05
9 *780:A *666:A1 1.26626e-05
10 *780:A *668:A1 3.91191e-05
11 *780:A *673:A2 1.00941e-05
12 *780:A *673:B1 3.61388e-06
13 *780:A *675:A2 9.48904e-05
14 *780:A *782:A 5.11148e-06
15 *780:A *132:14 0.000229904
16 *780:A *132:36 0.00032876
17 *780:A *132:54 0.000368846
18 *780:A *133:61 0.000295016
19 *780:A *188:42 2.24905e-05
20 *780:A *226:122 3.97827e-05
21 *780:A *283:43 7.81954e-05
*RES
1 clk *780:A 22.2512 
*END

*D_NET *4 0.0006194
*CONN
*P diag_addr[0] O
*I *832:X O *D sky130_fd_sc_hd__buf_2
*CAP
1 diag_addr[0] 0.000267879
2 *832:X 0.000267879
3 diag_addr[0] diag_addr[5] 0
4 diag_addr[0] diag_addr[6] 2.24901e-05
5 diag_addr[0] diag_addr[7] 0
6 diag_addr[0] mem_addr[7] 2.24901e-05
7 diag_addr[0] *196:12 3.86607e-05
*RES
1 *832:X diag_addr[0] 5.92503 
*END

*D_NET *5 0.00201027
*CONN
*P diag_addr[1] O
*I *833:X O *D sky130_fd_sc_hd__buf_2
*CAP
1 diag_addr[1] 0.000781891
2 *833:X 0.000781891
3 diag_addr[1] diag_addr[5] 8.47237e-05
4 diag_addr[1] *659:A1 4.05358e-05
5 diag_addr[1] *121:46 4.05483e-05
6 diag_addr[1] *190:65 0
7 *780:A diag_addr[1] 0.000280683
*RES
1 *833:X diag_addr[1] 7.14863 
*END

*D_NET *6 0.000807421
*CONN
*P diag_addr[2] O
*I *834:X O *D sky130_fd_sc_hd__buf_2
*CAP
1 diag_addr[2] 0.000400803
2 *834:X 0.000400803
3 diag_addr[2] diag_addr[3] 0
4 diag_addr[2] *651:A1 3.1562e-06
5 diag_addr[2] *651:B1 2.65814e-06
*RES
1 *834:X diag_addr[2] 10.395 
*END

*D_NET *7 0.00100964
*CONN
*P diag_addr[3] O
*I *835:X O *D sky130_fd_sc_hd__buf_2
*CAP
1 diag_addr[3] 0.000502138
2 *835:X 0.000502138
3 diag_addr[3] *738:D 5.35969e-06
4 diag_addr[2] diag_addr[3] 0
*RES
1 *835:X diag_addr[3] 11.22 
*END

*D_NET *8 0.00126774
*CONN
*P diag_addr[4] O
*I *836:X O *D sky130_fd_sc_hd__buf_2
*CAP
1 diag_addr[4] 0.000473592
2 *836:X 0.000473592
3 diag_addr[4] *739:CLK 0
4 diag_addr[4] *739:D 0
5 diag_addr[4] *836:A 8.08439e-05
6 diag_addr[4] *200:10 5.76869e-05
7 *780:A diag_addr[4] 0.000182022
*RES
1 *836:X diag_addr[4] 7.97943 
*END

*D_NET *9 0.000465447
*CONN
*P diag_addr[5] O
*I *837:X O *D sky130_fd_sc_hd__buf_2
*CAP
1 diag_addr[5] 0.000174657
2 *837:X 0.000174657
3 diag_addr[5] diag_addr[6] 3.14094e-05
4 diag_addr[0] diag_addr[5] 0
5 diag_addr[1] diag_addr[5] 8.47237e-05
*RES
1 *837:X diag_addr[5] 4.90503 
*END

*D_NET *10 0.000653252
*CONN
*P diag_addr[6] O
*I *838:X O *D sky130_fd_sc_hd__buf_2
*CAP
1 diag_addr[6] 0.000299676
2 *838:X 0.000299676
3 diag_addr[0] diag_addr[6] 2.24901e-05
4 diag_addr[5] diag_addr[6] 3.14094e-05
*RES
1 *838:X diag_addr[6] 7.1793 
*END

*D_NET *11 0.000599604
*CONN
*P diag_addr[7] O
*I *839:X O *D sky130_fd_sc_hd__buf_2
*CAP
1 diag_addr[7] 0.000259768
2 *839:X 0.000259768
3 diag_addr[7] mem_addr[7] 3.14094e-05
4 diag_addr[7] pass_fail 4.86576e-05
5 diag_addr[7] *828:A 0
6 diag_addr[7] *839:A 0
7 diag_addr[0] diag_addr[7] 0
*RES
1 *839:X diag_addr[7] 6.0935 
*END

*D_NET *12 0.00124991
*CONN
*P done O
*I *840:X O *D sky130_fd_sc_hd__buf_2
*CAP
1 done 0.00041051
2 *840:X 0.00041051
3 done mem_din[5] 0.000136869
4 done *711:B1 0
5 done *831:A 8.28789e-05
6 done *840:A 0.000143598
7 done *204:8 6.55406e-05
*RES
1 *840:X done 10.3968 
*END

*D_NET *13 0.000809287
*CONN
*P mem_addr[0] O
*I *841:X O *D sky130_fd_sc_hd__buf_2
*CAP
1 mem_addr[0] 0.000404643
2 *841:X 0.000404643
3 mem_addr[0] mem_addr[1] 0
4 mem_addr[0] mem_addr[2] 0
*RES
1 *841:X mem_addr[0] 10.185 
*END

*D_NET *14 0.000813955
*CONN
*P mem_addr[1] O
*I *842:X O *D sky130_fd_sc_hd__buf_2
*CAP
1 mem_addr[1] 0.000406977
2 *842:X 0.000406977
3 mem_addr[0] mem_addr[1] 0
*RES
1 *842:X mem_addr[1] 10.185 
*END

*D_NET *15 0.000818197
*CONN
*P mem_addr[2] O
*I *843:X O *D sky130_fd_sc_hd__buf_2
*CAP
1 mem_addr[2] 0.000390453
2 *843:X 0.000390453
3 mem_addr[2] *843:A 3.72916e-05
4 mem_addr[0] mem_addr[2] 0
*RES
1 *843:X mem_addr[2] 10.185 
*END

*D_NET *16 0.000809287
*CONN
*P mem_addr[3] O
*I *844:X O *D sky130_fd_sc_hd__buf_2
*CAP
1 mem_addr[3] 0.000404643
2 *844:X 0.000404643
*RES
1 *844:X mem_addr[3] 10.185 
*END

*D_NET *17 0.000821954
*CONN
*P mem_addr[4] O
*I *845:X O *D sky130_fd_sc_hd__buf_2
*CAP
1 mem_addr[4] 0.000393693
2 *845:X 0.000393693
3 mem_addr[4] mem_addr[5] 0
4 mem_addr[4] *845:A 3.45679e-05
*RES
1 *845:X mem_addr[4] 10.185 
*END

*D_NET *18 0.000809287
*CONN
*P mem_addr[5] O
*I *846:X O *D sky130_fd_sc_hd__buf_2
*CAP
1 mem_addr[5] 0.000404643
2 *846:X 0.000404643
3 mem_addr[4] mem_addr[5] 0
*RES
1 *846:X mem_addr[5] 10.185 
*END

*D_NET *19 0.000591822
*CONN
*P mem_addr[6] O
*I *847:X O *D sky130_fd_sc_hd__buf_2
*CAP
1 mem_addr[6] 0.000277944
2 *847:X 0.000277944
3 mem_addr[6] *210:14 0
4 mem_addr[6] *212:12 3.5935e-05
*RES
1 *847:X mem_addr[6] 5.92503 
*END

*D_NET *20 0.000660243
*CONN
*P mem_addr[7] O
*I *848:X O *D sky130_fd_sc_hd__buf_2
*CAP
1 mem_addr[7] 0.000303172
2 *848:X 0.000303172
3 diag_addr[0] mem_addr[7] 2.24901e-05
4 diag_addr[7] mem_addr[7] 3.14094e-05
*RES
1 *848:X mem_addr[7] 7.1793 
*END

*D_NET *21 0.000737322
*CONN
*P mem_ce O
*I *849:X O *D sky130_fd_sc_hd__buf_2
*CAP
1 mem_ce 0.000244232
2 *849:X 0.000244232
3 mem_ce *798:A 9.02825e-05
4 mem_ce *823:A 8.45478e-05
5 mem_ce *849:A 7.4027e-05
*RES
1 *849:X mem_ce 6.43503 
*END

*D_NET *22 0.00109826
*CONN
*P mem_din[0] O
*I *850:X O *D sky130_fd_sc_hd__buf_2
*CAP
1 mem_din[0] 0.000501629
2 *850:X 0.000501629
3 mem_din[0] mem_din[3] 0
4 mem_din[0] mem_din[4] 9.50048e-05
*RES
1 *850:X mem_din[0] 10.515 
*END

*D_NET *23 0.000630729
*CONN
*P mem_din[1] O
*I *851:X O *D sky130_fd_sc_hd__buf_2
*CAP
1 mem_din[1] 0.000196472
2 *851:X 0.000196472
3 mem_din[1] mem_din[2] 8.45478e-05
4 mem_din[1] mem_din[6] 9.25475e-05
5 mem_din[1] *850:A 6.06899e-05
*RES
1 *851:X mem_din[1] 5.92503 
*END

*D_NET *24 0.000709106
*CONN
*P mem_din[2] O
*I *852:X O *D sky130_fd_sc_hd__buf_2
*CAP
1 mem_din[2] 0.000238448
2 *852:X 0.000238448
3 mem_din[2] mem_din[3] 0.000128246
4 mem_din[2] *850:A 9.58678e-06
5 mem_din[2] *853:A 9.82856e-06
6 mem_din[1] mem_din[2] 8.45478e-05
*RES
1 *852:X mem_din[2] 5.1381 
*END

*D_NET *25 0.000709758
*CONN
*P mem_din[3] O
*I *853:X O *D sky130_fd_sc_hd__buf_2
*CAP
1 mem_din[3] 0.000225404
2 *853:X 0.000225404
3 mem_din[3] mem_din[4] 0.000130703
4 mem_din[0] mem_din[3] 0
5 mem_din[2] mem_din[3] 0.000128246
*RES
1 *853:X mem_din[3] 5.6481 
*END

*D_NET *26 0.00113981
*CONN
*P mem_din[4] O
*I *854:X O *D sky130_fd_sc_hd__buf_2
*CAP
1 mem_din[4] 0.000457053
2 *854:X 0.000457053
3 mem_din[0] mem_din[4] 9.50048e-05
4 mem_din[3] mem_din[4] 0.000130703
*RES
1 *854:X mem_din[4] 8.43117 
*END

*D_NET *27 0.000615596
*CONN
*P mem_din[5] O
*I *855:X O *D sky130_fd_sc_hd__buf_2
*CAP
1 mem_din[5] 0.000162105
2 *855:X 0.000162105
3 mem_din[5] mem_din[7] 9.20289e-05
4 mem_din[5] *840:A 6.24871e-05
5 done mem_din[5] 0.000136869
*RES
1 *855:X mem_din[5] 5.41503 
*END

*D_NET *28 0.000550764
*CONN
*P mem_din[6] O
*I *856:X O *D sky130_fd_sc_hd__buf_2
*CAP
1 mem_din[6] 0.000182834
2 *856:X 0.000182834
3 mem_din[6] mem_din[7] 9.25475e-05
4 mem_din[6] *223:37 0
5 mem_din[6] *223:66 0
6 mem_din[1] mem_din[6] 9.25475e-05
*RES
1 *856:X mem_din[6] 5.41503 
*END

*D_NET *29 0.000713908
*CONN
*P mem_din[7] O
*I *857:X O *D sky130_fd_sc_hd__buf_2
*CAP
1 mem_din[7] 0.000257257
2 *857:X 0.000257257
3 mem_din[7] *840:A 6.15576e-06
4 mem_din[7] *855:A 8.66107e-06
5 mem_din[5] mem_din[7] 9.20289e-05
6 mem_din[6] mem_din[7] 9.25475e-05
*RES
1 *857:X mem_din[7] 5.1381 
*END

*D_NET *30 0.000887678
*CONN
*P mem_dout[0] I
*I *822:A I *D sky130_fd_sc_hd__clkbuf_1
*CAP
1 mem_dout[0] 0.000442014
2 *822:A 0.000442014
3 *822:A *718:A1 3.64998e-06
4 *822:A *721:B 0
5 *822:A *824:A 0
*RES
1 mem_dout[0] *822:A 11.25 
*END

*D_NET *31 0.000882419
*CONN
*P mem_dout[1] I
*I *824:A I *D sky130_fd_sc_hd__clkbuf_1
*CAP
1 mem_dout[1] 0.000432017
2 *824:A 0.000432017
3 *824:A *720:A1 1.83847e-05
4 *822:A *824:A 0
*RES
1 mem_dout[1] *824:A 11.04 
*END

*D_NET *32 0.000572527
*CONN
*P mem_dout[2] I
*I *825:A I *D sky130_fd_sc_hd__clkbuf_1
*CAP
1 mem_dout[2] 0.000272764
2 *825:A 0.000272764
3 *825:A *827:A 2.69997e-05
*RES
1 mem_dout[2] *825:A 7.0893 
*END

*D_NET *33 0.000816696
*CONN
*P mem_dout[3] I
*I *826:A I *D sky130_fd_sc_hd__clkbuf_1
*CAP
1 mem_dout[3] 0.000384202
2 *826:A 0.000384202
3 *826:A *721:A 0
4 *826:A *721:B 4.82919e-05
*RES
1 mem_dout[3] *826:A 10.35 
*END

*D_NET *34 0.00064819
*CONN
*P mem_dout[4] I
*I *827:A I *D sky130_fd_sc_hd__clkbuf_1
*CAP
1 mem_dout[4] 0.000310595
2 *827:A 0.000310595
3 *827:A *830:A 0
4 *825:A *827:A 2.69997e-05
*RES
1 mem_dout[4] *827:A 7.8543 
*END

*D_NET *35 0.00064152
*CONN
*P mem_dout[5] I
*I *828:A I *D sky130_fd_sc_hd__clkbuf_1
*CAP
1 mem_dout[5] 0.00027074
2 *828:A 0.00027074
3 *828:A pass_fail 3.6993e-05
4 *828:A *728:A1 4.05569e-05
5 *828:A *829:A 2.24901e-05
6 *828:A *830:A 0
7 diag_addr[7] *828:A 0
*RES
1 mem_dout[5] *828:A 6.63177 
*END

*D_NET *36 0.000678513
*CONN
*P mem_dout[6] I
*I *829:A I *D sky130_fd_sc_hd__clkbuf_1
*CAP
1 mem_dout[6] 0.000312307
2 *829:A 0.000312307
3 *829:A *770:D 0
4 *829:A *830:A 3.14094e-05
5 *828:A *829:A 2.24901e-05
*RES
1 mem_dout[6] *829:A 8.1093 
*END

*D_NET *37 0.000709835
*CONN
*P mem_dout[7] I
*I *830:A I *D sky130_fd_sc_hd__clkbuf_1
*CAP
1 mem_dout[7] 0.00031452
2 *830:A 0.00031452
3 *830:A *728:B1 1.68017e-05
4 *830:A *770:D 3.25831e-05
5 *827:A *830:A 0
6 *828:A *830:A 0
7 *829:A *830:A 3.14094e-05
*RES
1 mem_dout[7] *830:A 5.53157 
*END

*D_NET *38 0.00100642
*CONN
*P mem_we O
*I *858:X O *D sky130_fd_sc_hd__buf_2
*CAP
1 mem_we 0.000273791
2 *858:X 0.000273791
3 mem_we *711:B1 0
4 mem_we *823:A 9.25475e-05
5 mem_we *831:A 9.25475e-05
6 mem_we *858:A 0.000207023
7 mem_we *224:8 6.67166e-05
*RES
1 *858:X mem_we 8.22003 
*END

*D_NET *39 0.000897337
*CONN
*P pass_fail O
*I *859:X O *D sky130_fd_sc_hd__buf_2
*CAP
1 pass_fail 0.000379309
2 *859:X 0.000379309
3 pass_fail *839:A 5.30673e-05
4 diag_addr[7] pass_fail 4.86576e-05
5 *828:A pass_fail 3.6993e-05
*RES
1 *859:X pass_fail 8.62043 
*END

*D_NET *40 0.00289226
*CONN
*P rst I
*I *831:A I *D sky130_fd_sc_hd__clkbuf_1
*CAP
1 rst 0.00127496
2 *831:A 0.00127496
3 *831:A *795:A 7.00889e-06
4 *831:A *823:A 0
5 *831:A *91:12 2.94243e-05
6 *831:A *91:16 8.53113e-06
7 *831:A *183:174 8.23457e-05
8 *831:A *266:18 3.96088e-05
9 done *831:A 8.28789e-05
10 mem_we *831:A 9.25475e-05
*RES
1 rst *831:A 7.64477 
*END

*D_NET *41 0.000921709
*CONN
*P start I
*I *823:A I *D sky130_fd_sc_hd__buf_1
*CAP
1 start 0.000372307
2 *823:A 0.000372307
3 *823:A *798:A 0
4 *823:A *226:51 0
5 mem_ce *823:A 8.45478e-05
6 mem_we *823:A 9.25475e-05
7 *831:A *823:A 0
*RES
1 start *823:A 6.0779 
*END

*D_NET *42 0.000961179
*CONN
*I *802:A I *D sky130_fd_sc_hd__dlygate4sd3_1
*I *635:X O *D sky130_fd_sc_hd__a211o_1
*CAP
1 *802:A 0.000165901
2 *635:X 0.000165901
3 *802:A *607:B 1.71013e-05
4 *802:A *610:A 6.53635e-05
5 *802:A *631:B 0.000148874
6 *802:A *634:B1 1.66856e-05
7 *802:A *635:A1 4.66108e-05
8 *802:A *635:A2 8.40213e-05
9 *802:A *635:B1 4.80285e-05
10 *802:A *635:C1 0.00011379
11 *802:A *281:12 8.89019e-05
*RES
1 *635:X *802:A 12.12 
*END

*D_NET *43 0.00110944
*CONN
*I *734:D I *D sky130_fd_sc_hd__dfxtp_1
*I *612:X O *D sky130_fd_sc_hd__a22o_1
*CAP
1 *734:D 0.000383942
2 *612:X 0.000383942
3 *734:D *612:A1 2.16389e-05
4 *734:D *613:A 0
5 *734:D *613:C 4.43871e-06
6 *734:D *735:D 0
7 *734:D *187:12 0
8 *734:D *191:18 0.000205256
9 *734:D *230:45 0
10 *734:D *230:58 0.000110223
*RES
1 *612:X *734:D 14.5238 
*END

*D_NET *44 0.00101918
*CONN
*I *735:D I *D sky130_fd_sc_hd__dfxtp_1
*I *614:X O *D sky130_fd_sc_hd__a31o_1
*CAP
1 *735:D 0.000404087
2 *614:X 0.000404087
3 *735:D *230:45 0.000189893
4 *735:D *268:10 2.11084e-05
5 *734:D *735:D 0
*RES
1 *614:X *735:D 14.1488 
*END

*D_NET *45 0.000780957
*CONN
*I *744:D I *D sky130_fd_sc_hd__dfxtp_1
*I *615:Y O *D sky130_fd_sc_hd__nand2_1
*CAP
1 *744:D 0.000263194
2 *615:Y 0.000263194
3 *744:D *608:A 1.56428e-05
4 *744:D *615:A 3.03684e-05
5 *744:D *615:B 3.64998e-06
6 *744:D *701:B1 3.43427e-05
7 *744:D *744:CLK 9.50342e-06
8 *744:D *230:27 7.07801e-05
9 *744:D *277:6 1.48666e-05
10 *744:D *277:29 7.5416e-05
*RES
1 *615:Y *744:D 11.385 
*END

*D_NET *46 0.000479997
*CONN
*I *745:D I *D sky130_fd_sc_hd__dfxtp_1
*I *628:X O *D sky130_fd_sc_hd__a21o_1
*CAP
1 *745:D 6.52285e-05
2 *628:X 6.52285e-05
3 *745:D *700:A 2.68503e-05
4 *745:D *186:24 4.41999e-05
5 *745:D *191:10 0.000108322
6 *745:D *191:12 3.09233e-05
7 *745:D *267:44 0.000139245
*RES
1 *628:X *745:D 9.555 
*END

*D_NET *47 0.000552369
*CONN
*I *746:D I *D sky130_fd_sc_hd__dfxtp_1
*I *617:X O *D sky130_fd_sc_hd__a32o_1
*CAP
1 *746:D 6.80825e-05
2 *617:X 6.80825e-05
3 *746:D *749:CLK 3.09164e-05
4 *746:D *750:CLK 9.30787e-05
5 *746:D *783:A 5.23341e-05
6 *746:D *89:35 0.000113797
7 *746:D *191:80 0.000126078
*RES
1 *617:X *746:D 9.75375 
*END

*D_NET *48 0.000407163
*CONN
*I *747:D I *D sky130_fd_sc_hd__dfxtp_1
*I *623:X O *D sky130_fd_sc_hd__a32o_1
*CAP
1 *747:D 9.11116e-05
2 *623:X 9.11116e-05
3 *747:D *611:A 7.99391e-05
4 *747:D *612:B2 9.07449e-05
5 *747:D *623:A2 2.67022e-05
6 *747:D *187:12 2.75538e-05
7 *747:D *191:12 0
8 *747:D *191:18 0
*RES
1 *623:X *747:D 9.555 
*END

*D_NET *49 0.000752242
*CONN
*I *748:D I *D sky130_fd_sc_hd__dfxtp_1
*I *625:X O *D sky130_fd_sc_hd__a2bb2o_1
*CAP
1 *748:D 0.0002077
2 *625:X 0.0002077
3 *748:D *704:A 0
4 *748:D *733:CLK 0
5 *748:D *105:8 0
6 *748:D *192:16 0.000128642
7 *748:D *231:38 0
8 *748:D *234:40 5.53249e-06
9 *748:D *266:10 7.4027e-05
10 *748:D *281:8 0.000128642
11 *748:D *281:12 0
*RES
1 *625:X *748:D 11.5387 
*END

*D_NET *50 0.000951436
*CONN
*I *749:D I *D sky130_fd_sc_hd__dfxtp_1
*I *629:X O *D sky130_fd_sc_hd__a32o_1
*CAP
1 *749:D 0.000189455
2 *629:X 0.000189455
3 *749:D *628:B1 4.66742e-05
4 *749:D *749:CLK 0.000264936
5 *749:D *97:12 0.000260915
*RES
1 *629:X *749:D 11.2987 
*END

*D_NET *51 0.000684724
*CONN
*I *750:D I *D sky130_fd_sc_hd__dfxtp_2
*I *630:X O *D sky130_fd_sc_hd__a32o_1
*CAP
1 *750:D 0.000183407
2 *630:X 0.000183407
3 *750:D *640:A2 4.82863e-05
4 *750:D *715:B1 0
5 *750:D *781:A 1.43717e-05
6 *750:D *783:A 2.79004e-05
7 *750:D *279:10 0.000183731
8 *750:D *283:10 0
9 *750:D *283:39 1.43717e-05
10 *750:D *283:43 2.92496e-05
*RES
1 *630:X *750:D 10.9537 
*END

*D_NET *52 0.000255575
*CONN
*I *736:D I *D sky130_fd_sc_hd__dfxtp_1
*I *647:X O *D sky130_fd_sc_hd__a21o_1
*CAP
1 *736:D 0.000127788
2 *647:X 0.000127788
3 *736:D *121:24 0
*RES
1 *647:X *736:D 9.01875 
*END

*D_NET *53 0.00145326
*CONN
*I *737:D I *D sky130_fd_sc_hd__dfxtp_1
*I *649:X O *D sky130_fd_sc_hd__a21o_1
*CAP
1 *737:D 0.000362158
2 *649:X 0.000362158
3 *737:D *655:B1 2.36616e-05
4 *737:D *737:CLK 0.000498382
5 *737:D *817:A 3.09233e-05
6 *737:D *121:65 9.84961e-05
7 *737:D *190:88 2.75145e-05
8 *737:D *197:8 4.99619e-05
*RES
1 *649:X *737:D 14.7188 
*END

*D_NET *54 0.000729912
*CONN
*I *738:D I *D sky130_fd_sc_hd__dfxtp_1
*I *651:X O *D sky130_fd_sc_hd__a21o_1
*CAP
1 *738:D 0.000237039
2 *651:X 0.000237039
3 *738:D *651:A2 6.36578e-05
4 *738:D *651:B1 0
5 *738:D *652:A1 7.89767e-05
6 *738:D *738:CLK 9.50342e-06
7 *738:D *835:A 5.13029e-05
8 *738:D *121:76 0
9 *738:D *199:8 4.70343e-05
10 diag_addr[3] *738:D 5.35969e-06
*RES
1 *651:X *738:D 12.045 
*END

*D_NET *55 0.000672943
*CONN
*I *739:D I *D sky130_fd_sc_hd__dfxtp_1
*I *653:X O *D sky130_fd_sc_hd__a21o_1
*CAP
1 *739:D 0.000220853
2 *653:X 0.000220853
3 *739:D *653:B1 9.24127e-05
4 *739:D *739:CLK 0.000138825
5 diag_addr[4] *739:D 0
*RES
1 *653:X *739:D 11.2987 
*END

*D_NET *56 0.000717853
*CONN
*I *740:D I *D sky130_fd_sc_hd__dfxtp_1
*I *655:X O *D sky130_fd_sc_hd__a21o_1
*CAP
1 *740:D 0.000207386
2 *655:X 0.000207386
3 *740:D *655:B1 0.00028871
4 *740:D *740:CLK 1.43717e-05
*RES
1 *655:X *740:D 11.2087 
*END

*D_NET *57 0.00128562
*CONN
*I *741:D I *D sky130_fd_sc_hd__dfxtp_1
*I *657:X O *D sky130_fd_sc_hd__a21o_1
*CAP
1 *741:D 0.000335868
2 *657:X 0.000335868
3 *741:D *657:A2 2.05056e-05
4 *741:D *807:A 0.000431333
5 *741:D *818:A 0.000162047
*RES
1 *657:X *741:D 13.8188 
*END

*D_NET *58 0.000212395
*CONN