*SPEF "ieee 1481-1999"
*DESIGN "mbist_ctrl"
*DATE "19:24:55 Monday May 11, 2026"
*VENDOR "The OpenROAD Project"
*PROGRAM "OpenROAD"
*VERSION "edf00dff99f6c40d67a30c0e22a8191c5d2ed9d6"
*DESIGN_FLOW "NAME_SCOPE LOCAL" "PIN_CAP NONE"
*DIVIDER /
*DELIMITER :
*BUS_DELIMITER []
*T_UNIT 1 NS
*C_UNIT 1 PF
*R_UNIT 1 OHM
*L_UNIT 1 HENRY

*NAME_MAP
*3 clk
*4 diag_addr[0]
*5 diag_addr[1]
*6 diag_addr[2]
*7 diag_addr[3]
*8 diag_addr[4]
*9 diag_addr[5]
*10 diag_addr[6]
*11 diag_addr[7]
*12 done
*13 mem_addr[0]
*14 mem_addr[1]
*15 mem_addr[2]
*16 mem_addr[3]
*17 mem_addr[4]
*18 mem_addr[5]
*19 mem_addr[6]
*20 mem_addr[7]
*21 mem_ce
*22 mem_din[0]
*23 mem_din[1]
*24 mem_din[2]
*25 mem_din[3]
*26 mem_din[4]
*27 mem_din[5]
*28 mem_din[6]
*29 mem_din[7]
*30 mem_dout[0]
*31 mem_dout[1]
*32 mem_dout[2]
*33 mem_dout[3]
*34 mem_dout[4]
*35 mem_dout[5]
*36 mem_dout[6]
*37 mem_dout[7]
*38 mem_we
*39 pass_fail
*40 rst
*41 start
*42 _000_
*43 _001_
*44 _002_
*45 _003_
*46 _004_
*47 _005_
*48 _006_
*49 _007_
*50 _008_
*51 _009_
*52 _010_
*53 _011_
*54 _012_
*55 _013_
*56 _014_
*57 _015_
*58 _016_
*59 _017_
*60 _018_
*61 _019_
*62 _020_
*63 _021_
*64 _022_
*65 _023_
*66 _024_
*67 _025_
*68 _026_
*69 _027_
*70 _028_
*71 _029_
*72 _030_
*73 _031_
*74 _032_
*75 _033_
*76 _034_
*77 _035_
*78 _036_
*79 _037_
*80 _038_
*81 _039_
*82 _040_
*83 _041_
*84 _042_
*85 _043_
*86 _044_
*87 _045_
*88 _046_
*89 _047_
*90 _048_
*91 _049_
*92 _050_
*93 _051_
*94 _052_
*95 _053_
*96 _054_
*97 _055_
*98 _056_
*99 _057_
*100 _058_
*101 _059_
*102 _060_
*103 _061_
*104 _062_
*105 _063_
*106 _064_
*107 _065_
*108 _066_
*109 _067_
*110 _068_
*111 _069_
*112 _070_
*113 _071_
*114 _072_
*115 _073_
*116 _074_
*117 _075_
*118 _076_
*119 _077_
*120 _078_
*121 _079_
*122 _080_
*123 _081_
*124 _082_
*125 _083_
*126 _084_
*127 _085_
*128 _086_
*129 _087_
*130 _088_
*131 _089_
*132 _090_
*133 _091_
*134 _092_
*135 _093_
*136 _094_
*137 _095_
*138 _096_
*139 _097_
*140 _098_
*141 _099_
*142 _100_
*143 _101_
*144 _102_
*145 _103_
*146 _104_
*147 _105_
*148 _106_
*149 _107_
*150 _108_
*151 _109_
*152 _110_
*153 _111_
*154 _112_
*155 _113_
*156 _114_
*157 _115_
*158 _116_
*159 _117_
*160 _118_
*161 _119_
*162 _120_
*163 _121_
*164 _122_
*165 _123_
*166 _124_
*167 _125_
*168 _126_
*169 _127_
*170 _128_
*171 _129_
*172 _130_
*173 _131_
*174 _132_
*175 _133_
*176 _134_
*177 _135_
*178 _136_
*179 _137_
*180 _138_
*181 _139_
*182 _140_
*183 _141_
*184 _142_
*185 _143_
*186 _144_
*187 _145_
*188 clknet_0_clk
*189 clknet_2_0__leaf_clk
*190 clknet_2_1__leaf_clk
*191 clknet_2_2__leaf_clk
*192 clknet_2_3__leaf_clk
*193 diag_captured
*194 net1
*195 net10
*196 net11
*197 net12
*198 net13
*199 net14
*200 net15
*201 net16
*202 net17
*203 net18
*204 net19
*205 net2
*206 net20
*207 net21
*208 net22
*209 net23
*210 net24
*211 net25
*212 net26
*213 net27
*214 net28
*215 net29
*216 net3
*217 net30
*218 net31
*219 net32
*220 net33
*221 net34
*222 net35
*223 net36
*224 net37
*225 net38
*226 net39
*227 net4
*228 net40
*229 net41
*230 net42
*231 net43
*232 net44
*233 net45
*234 net46
*235 net47
*236 net48
*237 net49
*238 net5
*239 net50
*240 net51
*241 net52
*242 net53
*243 net54
*244 net55
*245 net56
*246 net57
*247 net58
*248 net59
*249 net6
*250 net60
*251 net61
*252 net62
*253 net63
*254 net64
*255 net65
*256 net66
*257 net67
*258 net68
*259 net69
*260 net7
*261 net70
*262 net71
*263 net72
*264 net8
*265 net9
*266 phase\[0\]
*267 phase\[1\]
*268 phase\[2\]
*269 read_data\[0\]
*270 read_data\[1\]
*271 read_data\[2\]
*272 read_data\[3\]
*273 read_data\[4\]
*274 read_data\[5\]
*275 read_data\[6\]
*276 read_data\[7\]
*277 state\[0\]
*278 state\[1\]
*279 state\[2\]
*280 state\[3\]
*281 state\[4\]
*282 state\[5\]
*283 state\[6\]
*284 FILLER_0_109
*285 FILLER_0_113
*286 FILLER_0_15
*287 FILLER_0_21
*288 FILLER_0_27
*289 FILLER_0_29
*290 FILLER_0_3
*291 FILLER_0_41
*292 FILLER_0_48
*293 FILLER_0_55
*294 FILLER_0_57
*295 FILLER_0_69
*296 FILLER_0_81
*297 FILLER_0_85
*298 FILLER_0_97
*299 FILLER_10_11
*300 FILLER_10_114
*301 FILLER_10_131
*302 FILLER_10_23
*303 FILLER_10_27
*304 FILLER_10_45
*305 FILLER_10_59
*306 FILLER_10_71
*307 FILLER_10_75
*308 FILLER_10_82
*309 FILLER_10_85
*310 FILLER_10_94
*311 FILLER_10_98
*312 FILLER_11_113
*313 FILLER_11_20
*314 FILLER_11_3
*315 FILLER_11_52
*316 FILLER_11_57
*317 FILLER_11_81
*318 FILLER_12_109
*319 FILLER_12_131
*320 FILLER_12_23
*321 FILLER_12_27
*322 FILLER_12_35
*323 FILLER_12_55
*324 FILLER_12_63
*325 FILLER_12_7
*326 FILLER_13_103
*327 FILLER_13_111
*328 FILLER_13_113
*329 FILLER_13_119
*330 FILLER_13_128
*331 FILLER_13_20
*332 FILLER_13_3
*333 FILLER_13_32
*334 FILLER_13_44
*335 FILLER_13_92
*336 FILLER_14_122
*337 FILLER_14_130
*338 FILLER_14_23
*339 FILLER_14_27
*340 FILLER_14_29
*341 FILLER_14_33
*342 FILLER_14_40
*343 FILLER_14_63
*344 FILLER_14_7
*345 FILLER_14_85
*346 FILLER_14_93
*347 FILLER_15_113
*348 FILLER_15_131
*349 FILLER_15_38
*350 FILLER_15_66
*351 FILLER_15_7
*352 FILLER_15_78
*353 FILLER_15_90
*354 FILLER_15_98
*355 FILLER_16_102
*356 FILLER_16_111
*357 FILLER_16_121
*358 FILLER_16_27
*359 FILLER_16_29
*360 FILLER_16_50
*361 FILLER_16_62
*362 FILLER_16_74
*363 FILLER_16_85
*364 FILLER_16_94
*365 FILLER_17_118
*366 FILLER_17_130
*367 FILLER_17_28
*368 FILLER_17_3
*369 FILLER_17_45
*370 FILLER_17_53
*371 FILLER_17_57
*372 FILLER_17_65
*373 FILLER_17_72
*374 FILLER_17_84
*375 FILLER_17_96
*376 FILLER_18_127
*377 FILLER_18_29
*378 FILLER_18_3
*379 FILLER_18_69
*380 FILLER_18_83
*381 FILLER_18_85
*382 FILLER_18_97
*383 FILLER_19_132
*384 FILLER_19_26
*385 FILLER_19_3
*386 FILLER_19_95
*387 FILLER_1_102
*388 FILLER_1_110
*389 FILLER_1_113
*390 FILLER_1_3
*391 FILLER_1_42
*392 FILLER_1_53
*393 FILLER_1_57
*394 FILLER_1_69
*395 FILLER_1_81
*396 FILLER_1_85
*397 FILLER_20_101
*398 FILLER_20_127
*399 FILLER_20_3
*400 FILLER_20_60
*401 FILLER_21_106
*402 FILLER_21_113
*403 FILLER_21_119
*404 FILLER_21_131
*405 FILLER_21_16
*406 FILLER_21_20
*407 FILLER_21_3
*408 FILLER_21_35
*409 FILLER_21_47
*410 FILLER_21_55
*411 FILLER_21_57
*412 FILLER_21_67
*413 FILLER_21_82
*414 FILLER_21_94
*415 FILLER_21_98
*416 FILLER_22_110
*417 FILLER_22_113
*418 FILLER_22_119
*419 FILLER_22_126
*420 FILLER_22_132
*421 FILLER_22_15
*422 FILLER_22_23
*423 FILLER_22_3
*424 FILLER_22_35
*425 FILLER_22_42
*426 FILLER_22_54
*427 FILLER_22_57
*428 FILLER_22_65
*429 FILLER_22_70
*430 FILLER_22_77
*431 FILLER_22_85
*432 FILLER_22_93
*433 FILLER_22_98
*434 FILLER_2_24
*435 FILLER_2_29
*436 FILLER_2_6
*437 FILLER_2_81
*438 FILLER_3_105
*439 FILLER_3_111
*440 FILLER_3_121
*441 FILLER_3_128
*442 FILLER_3_3
*443 FILLER_3_32
*444 FILLER_3_62
*445 FILLER_3_7
*446 FILLER_3_87
*447 FILLER_4_104
*448 FILLER_4_111
*449 FILLER_4_16
*450 FILLER_4_27
*451 FILLER_4_50
*452 FILLER_4_6
*453 FILLER_4_62
*454 FILLER_4_82
*455 FILLER_4_85
*456 FILLER_5_3
*457 FILLER_5_38
*458 FILLER_5_50
*459 FILLER_5_57
*460 FILLER_5_96
*461 FILLER_6_124
*462 FILLER_6_25
*463 FILLER_6_37
*464 FILLER_6_48
*465 FILLER_6_54
*466 FILLER_6_71
*467 FILLER_6_85
*468 FILLER_7_103
*469 FILLER_7_113
*470 FILLER_7_131
*471 FILLER_7_35
*472 FILLER_7_49
*473 FILLER_7_55
*474 FILLER_7_88
*475 FILLER_7_96
*476 FILLER_8_17
*477 FILLER_8_25
*478 FILLER_8_3
*479 FILLER_8_82
*480 FILLER_8_93
*481 FILLER_8_99
*482 FILLER_9_103
*483 FILLER_9_132
*484 FILLER_9_18
*485 FILLER_9_36
*486 FILLER_9_53
*487 FILLER_9_57
*488 FILLER_9_6
*489 FILLER_9_63
*490 FILLER_9_71
*491 PHY_EDGE_ROW_0_Left_23
*492 PHY_EDGE_ROW_0_Right_0
*493 PHY_EDGE_ROW_10_Left_33
*494 PHY_EDGE_ROW_10_Right_10
*495 PHY_EDGE_ROW_11_Left_34
*496 PHY_EDGE_ROW_11_Right_11
*497 PHY_EDGE_ROW_12_Left_35
*498 PHY_EDGE_ROW_12_Right_12
*499 PHY_EDGE_ROW_13_Left_36
*500 PHY_EDGE_ROW_13_Right_13
*501 PHY_EDGE_ROW_14_Left_37
*502 PHY_EDGE_ROW_14_Right_14
*503 PHY_EDGE_ROW_15_Left_38
*504 PHY_EDGE_ROW_15_Right_15
*505 PHY_EDGE_ROW_16_Left_39
*506 PHY_EDGE_ROW_16_Right_16
*507 PHY_EDGE_ROW_17_Left_40
*508 PHY_EDGE_ROW_17_Right_17
*509 PHY_EDGE_ROW_18_Left_41
*510 PHY_EDGE_ROW_18_Right_18
*511 PHY_EDGE_ROW_19_Left_42
*512 PHY_EDGE_ROW_19_Right_19
*513 PHY_EDGE_ROW_1_Left_24
*514 PHY_EDGE_ROW_1_Right_1
*515 PHY_EDGE_ROW_20_Left_43
*516 PHY_EDGE_ROW_20_Right_20
*517 PHY_EDGE_ROW_21_Left_44
*518 PHY_EDGE_ROW_21_Right_21
*519 PHY_EDGE_ROW_22_Left_45
*520 PHY_EDGE_ROW_22_Right_22
*521 PHY_EDGE_ROW_2_Left_25
*522 PHY_EDGE_ROW_2_Right_2
*523 PHY_EDGE_ROW_3_Left_26
*524 PHY_EDGE_ROW_3_Right_3
*525 PHY_EDGE_ROW_4_Left_27
*526 PHY_EDGE_ROW_4_Right_4
*527 PHY_EDGE_ROW_5_Left_28
*528 PHY_EDGE_ROW_5_Right_5
*529 PHY_EDGE_ROW_6_Left_29
*530 PHY_EDGE_ROW_6_Right_6
*531 PHY_EDGE_ROW_7_Left_30
*532 PHY_EDGE_ROW_7_Right_7
*533 PHY_EDGE_ROW_8_Left_31
*534 PHY_EDGE_ROW_8_Right_8
*535 PHY_EDGE_ROW_9_Left_32
*536 PHY_EDGE_ROW_9_Right_9
*537 TAP_TAPCELL_ROW_0_46
*538 TAP_TAPCELL_ROW_0_47
*539 TAP_TAPCELL_ROW_0_48
*540 TAP_TAPCELL_ROW_0_49
*541 TAP_TAPCELL_ROW_10_68
*542 TAP_TAPCELL_ROW_10_69
*543 TAP_TAPCELL_ROW_11_70
*544 TAP_TAPCELL_ROW_11_71
*545 TAP_TAPCELL_ROW_12_72
*546 TAP_TAPCELL_ROW_12_73
*547 TAP_TAPCELL_ROW_13_74
*548 TAP_TAPCELL_ROW_13_75
*549 TAP_TAPCELL_ROW_14_76
*550 TAP_TAPCELL_ROW_14_77
*551 TAP_TAPCELL_ROW_15_78
*552 TAP_TAPCELL_ROW_15_79
*553 TAP_TAPCELL_ROW_16_80
*554 TAP_TAPCELL_ROW_16_81
*555 TAP_TAPCELL_ROW_17_82
*556 TAP_TAPCELL_ROW_17_83
*557 TAP_TAPCELL_ROW_18_84
*558 TAP_TAPCELL_ROW_18_85
*559 TAP_TAPCELL_ROW_19_86
*560 TAP_TAPCELL_ROW_19_87
*561 TAP_TAPCELL_ROW_1_50
*562 TAP_TAPCELL_ROW_1_51
*563 TAP_TAPCELL_ROW_20_88
*564 TAP_TAPCELL_ROW_20_89
*565 TAP_TAPCELL_ROW_21_90
*566 TAP_TAPCELL_ROW_21_91
*567 TAP_TAPCELL_ROW_22_92
*568 TAP_TAPCELL_ROW_22_93
*569 TAP_TAPCELL_ROW_22_94
*570 TAP_TAPCELL_ROW_22_95
*571 TAP_TAPCELL_ROW_2_52
*572 TAP_TAPCELL_ROW_2_53
*573 TAP_TAPCELL_ROW_3_54
*574 TAP_TAPCELL_ROW_3_55
*575 TAP_TAPCELL_ROW_4_56
*576 TAP_TAPCELL_ROW_4_57
*577 TAP_TAPCELL_ROW_5_58
*578 TAP_TAPCELL_ROW_5_59
*579 TAP_TAPCELL_ROW_6_60
*580 TAP_TAPCELL_ROW_6_61
*581 TAP_TAPCELL_ROW_7_62
*582 TAP_TAPCELL_ROW_7_63
*583 TAP_TAPCELL_ROW_8_64
*584 TAP_TAPCELL_ROW_8_65
*585 TAP_TAPCELL_ROW_9_66
*586 TAP_TAPCELL_ROW_9_67
*587 _146_
*588 _147_
*589 _148_
*590 _149_
*591 _150_
*592 _151_
*593 _152_
*594 _153_
*595 _154_
*596 _155_
*597 _156_
*598 _157_
*599 _158_
*600 _159_
*601 _160_
*602 _161_
*603 _162_
*604 _163_
*605 _164_
*606 _165_
*607 _166_
*608 _167_
*609 _168_
*610 _169_
*611 _170_
*612 _171_
*613 _172_
*614 _173_
*615 _174_
*616 _175_
*617 _176_
*618 _177_
*619 _178_
*620 _179_
*621 _180_
*622 _181_
*623 _182_
*624 _183_
*625 _184_
*626 _185_
*627 _186_
*628 _187_
*629 _188_
*630 _189_
*631 _190_
*632 _191_
*633 _192_
*634 _193_
*635 _194_
*636 _195_
*637 _196_
*638 _197_
*639 _198_
*640 _199_
*641 _200_
*642 _201_
*643 _202_
*644 _203_
*645 _204_
*646 _205_
*647 _206_
*648 _207_
*649 _208_
*650 _209_
*651 _210_
*652 _211_
*653 _212_
*654 _213_
*655 _214_
*656 _215_
*657 _216_
*658 _217_
*659 _218_
*660 _219_
*661 _220_
*662 _221_
*663 _222_
*664 _223_
*665 _224_
*666 _225_
*667 _226_
*668 _227_
*669 _228_
*670 _229_
*671 _230_
*672 _231_
*673 _232_
*674 _233_
*675 _234_
*676 _235_
*677 _236_
*678 _237_
*679 _238_
*680 _239_
*681 _240_
*682 _241_
*683 _242_
*684 _243_
*685 _244_
*686 _245_
*687 _246_
*688 _247_
*689 _248_
*690 _249_
*691 _250_
*692 _251_
*693 _252_
*694 _253_
*695 _254_
*696 _255_
*697 _256_
*698 _257_
*699 _258_
*700 _259_
*701 _260_
*702 _261_
*703 _262_
*704 _263_
*705 _264_
*706 _265_
*707 _266_
*708 _267_
*709 _268_
*710 _269_
*711 _270_
*712 _271_
*713 _272_
*714 _273_
*715 _274_
*716 _275_
*717 _276_
*718 _277_
*719 _278_
*720 _279_
*721 _280_
*722 _281_
*723 _282_
*724 _283_
*725 _284_
*726 _285_
*727 _286_
*728 _287_
*729 _288_
*730 _289_
*731 _290_
*732 _291_
*733 _292_
*734 _293_
*735 _294_
*736 _295_
*737 _296_
*738 _297_
*739 _298_
*740 _299_
*741 _300_
*742 _301_
*743 _302_
*744 _303_
*745 _304_
*746 _305_
*747 _306_
*748 _307_
*749 _308_
*750 _309_
*751 _310_
*752 _311_
*753 _312_
*754 _313_
*755 _314_
*756 _315_
*757 _316_
*758 _317_
*759 _318_
*760 _319_
*761 _320_
*762 _321_
*763 _322_
*764 _323_
*765 _324_
*766 _325_
*767 _326_
*768 _327_
*769 _328_
*770 _329_
*771 _330_
*772 _331_
*773 _332_
*774 _333_
*775 _334_
*776 _335_
*777 _336_
*778 _337_
*779 _338_
*780 clkbuf_0_clk
*781 clkbuf_2_0__f_clk
*782 clkbuf_2_1__f_clk
*783 clkbuf_2_2__f_clk
*784 clkbuf_2_3__f_clk
*785 clkload0
*786 clkload1
*787 clkload2
*788 fanout39
*789 fanout40
*790 fanout41
*791 fanout42
*792 fanout43
*793 fanout44
*794 fanout45
*795 fanout46
*796 hold1
*797 hold10
*798 hold11
*799 hold12
*800 hold13
*801 hold14
*802 hold15
*803 hold16
*804 hold17
*805 hold18
*806 hold19
*807 hold2
*808 hold20
*809 hold21
*810 hold22
*811 hold23
*812 hold24
*813 hold25
*814 hold26
*815 hold3
*816 hold4
*817 hold5
*818 hold6
*819 hold7
*820 hold8
*821 hold9
*822 input1
*823 input10
*824 input2
*825 input3
*826 input4
*827 input5
*828 input6
*829 input7
*830 input8
*831 input9
*832 output11
*833 output12
*834 output13
*835 output14
*836 output15
*837 output16
*838 output17
*839 output18
*840 output19
*841 output20
*842 output21
*843 output22
*844 output23
*845 output24
*846 output25
*847 output26
*848 output27
*849 output28
*850 output29
*851 output30
*852 output31
*853 output32
*854 output33
*855 output34
*856 output35
*857 output36
*858 output37
*859 output38

*PORTS
clk I
diag_addr[0] O
diag_addr[1] O
diag_addr[2] O
diag_addr[3] O
diag_addr[4] O
diag_addr[5] O
diag_addr[6] O
diag_addr[7] O
done O
mem_addr[0] O
mem_addr[1] O
mem_addr[2] O
mem_addr[3] O
mem_addr[4] O
mem_addr[5] O
mem_addr[6] O
mem_addr[7] O
mem_ce O
mem_din[0] O
mem_din[1] O
mem_din[2] O
mem_din[3] O
mem_din[4] O
mem_din[5] O
mem_din[6] O
mem_din[7] O
mem_dout[0] I
mem_dout[1] I
mem_dout[2] I
mem_dout[3] I
mem_dout[4] I
mem_dout[5] I
mem_dout[6] I
mem_dout[7] I
mem_we O
pass_fail O
rst I
start I

*D_NET *3 0.00867075
*CONN
*P clk I
*I *780:A I *D sky130_fd_sc_hd__clkbuf_16
*CAP
1 clk 0.00290447
2 *780:A 0
3 *3:11 0.00290447
4 *3:11 diag_addr[1] 0.000264796
5 *3:11 diag_addr[4] 0.000171952
6 *3:11 *665:A1 0.000107548
7 *3:11 *673:B1 3.20613e-06
8 *3:11 *675:A2 0.000101173
9 *3:11 *132:14 0.000275482
10 *3:11 *132:36 0.000392314
11 *3:11 *132:54 0.000436167
12 *3:11 *133:61 0.000350087
13 *3:11 *136:10 1.05658e-05
14 *3:11 *183:85 0
15 *3:11 *188:42 2.19436e-05
16 *3:11 *188:57 4.98718e-06
17 *3:11 *206:32 1.37349e-05
18 *3:11 *226:113 0.000530399
19 *3:11 *226:122 4.66241e-05
20 *3:11 *226:132 4.67227e-05
21 *3:11 *261:10 0
22 *3:11 *283:43 8.41115e-05
*RES
1 clk *3:11 48.4271 
2 *3:11 *780:A 23 
*END

*D_NET *4 0.000732581
*CONN
*P diag_addr[0] O
*I *832:X O *D sky130_fd_sc_hd__buf_2
*CAP
1 diag_addr[0] 0.000324613
2 *832:X 0.000324613
3 diag_addr[0] diag_addr[5] 0
4 diag_addr[0] diag_addr[6] 2.12457e-05
5 diag_addr[0] diag_addr[7] 0
6 diag_addr[0] mem_addr[7] 2.12457e-05
7 diag_addr[0] *10:14 0
8 diag_addr[0] *196:10 4.08641e-05
*RES
1 *832:X diag_addr[0] 48.5734 
*END

*D_NET *5 0.00225112
*CONN
*P diag_addr[1] O
*I *833:X O *D sky130_fd_sc_hd__buf_2
*CAP
1 diag_addr[1] 0.00078841
2 *833:X 7.06096e-05
3 *5:10 0.000859019
4 diag_addr[1] diag_addr[5] 7.92657e-05
5 diag_addr[1] *57:10 0.000106693
6 *5:10 *121:46 3.89868e-05
7 *5:10 *190:65 0
8 *5:10 *241:8 4.334e-05
9 *3:11 diag_addr[1] 0.000264796
*RES
1 *833:X *5:10 47.7296 
2 *5:10 diag_addr[1] 2.64693 
*END

*D_NET *6 0.000930557
*CONN
*P diag_addr[2] O
*I *834:X O *D sky130_fd_sc_hd__buf_2
*CAP
1 diag_addr[2] 0.000462586
2 *834:X 0.000462586
3 diag_addr[2] diag_addr[3] 0
4 diag_addr[2] *651:A1 2.92911e-06
5 diag_addr[2] *651:B1 2.45549e-06
*RES
1 *834:X diag_addr[2] 47.3836 
*END

*D_NET *7 0.00116427
*CONN
*P diag_addr[3] O
*I *835:X O *D sky130_fd_sc_hd__buf_2
*CAP
1 diag_addr[3] 0.0005795
2 *835:X 0.0005795
3 diag_addr[3] *54:10 5.26733e-06
4 diag_addr[2] diag_addr[3] 0
*RES
1 *835:X diag_addr[3] 48.5229 
*END

*D_NET *8 0.001452
*CONN
*P diag_addr[4] O
*I *836:X O *D sky130_fd_sc_hd__buf_2
*CAP
1 diag_addr[4] 0.000392062
2 *836:X 0.000173548
3 *8:10 0.00056561
4 *8:10 *739:CLK 0
5 *8:10 *836:A 8.76088e-05
6 *8:10 *55:8 0
7 *8:10 *200:10 6.12223e-05
8 *3:11 diag_addr[4] 0.000171952
*RES
1 *836:X *8:10 49.8425 
2 *8:10 diag_addr[4] 1.61653 
*END

*D_NET *9 0.000523897
*CONN
*P diag_addr[5] O
*I *837:X O *D sky130_fd_sc_hd__buf_2
*CAP
1 diag_addr[5] 0.000206692
2 *837:X 0.000206692
3 diag_addr[5] diag_addr[6] 1.5289e-05
4 diag_addr[5] *10:14 1.59585e-05
5 diag_addr[0] diag_addr[5] 0
6 diag_addr[1] diag_addr[5] 7.92657e-05
*RES
1 *837:X diag_addr[5] 47.1648 
*END

*D_NET *10 0.000751427
*CONN
*P diag_addr[6] O
*I *838:X O *D sky130_fd_sc_hd__buf_2
*CAP
1 diag_addr[6] 7.67726e-05
2 *838:X 0.000272694
3 *10:14 0.000349467
4 diag_addr[0] diag_addr[6] 2.12457e-05
5 diag_addr[0] *10:14 0
6 diag_addr[5] diag_addr[6] 1.5289e-05
7 diag_addr[5] *10:14 1.59585e-05
*RES
1 *838:X *10:14 49.9 
2 *10:14 diag_addr[6] 0.382667 
*END

*D_NET *11 0.00070561
*CONN
*P diag_addr[7] O
*I *839:X O *D sky130_fd_sc_hd__buf_2
*CAP
1 diag_addr[7] 0.000313778
2 *839:X 0.000313778
3 diag_addr[7] mem_addr[7] 1.5289e-05
4 diag_addr[7] pass_fail 3.49463e-05
5 diag_addr[7] *828:A 0
6 diag_addr[7] *839:A 0
7 diag_addr[7] *20:14 1.59585e-05
8 diag_addr[7] *39:10 1.18615e-05
9 diag_addr[0] diag_addr[7] 0
*RES
1 *839:X diag_addr[7] 48.7952 
*END

*D_NET *12 0.00148289
*CONN
*P done O
*I *840:X O *D sky130_fd_sc_hd__buf_2
*CAP
1 done 0.000145693
2 *840:X 0.000372199
3 *12:10 0.000517892
4 done mem_din[5] 7.14428e-05
5 done *40:13 7.82427e-05
6 *12:10 mem_din[5] 7.20089e-05
7 *12:10 *840:A 0.000155022
8 *12:10 *167:8 0
9 *12:10 *204:8 7.03869e-05
*RES
1 *840:X *12:10 45.9854 
2 *12:10 done 8.75787 
*END

*D_NET *13 0.000925633
*CONN
*P mem_addr[0] O
*I *841:X O *D sky130_fd_sc_hd__buf_2
*CAP
1 mem_addr[0] 0.000462816
2 *841:X 0.000462816
3 mem_addr[0] mem_addr[1] 0
4 mem_addr[0] mem_addr[2] 0
*RES
1 *841:X mem_addr[0] 47.0936 
*END

*D_NET *14 0.000935407
*CONN
*P mem_addr[1] O
*I *842:X O *D sky130_fd_sc_hd__buf_2
*CAP
1 mem_addr[1] 0.000467703
2 *842:X 0.000467703
3 mem_addr[0] mem_addr[1] 0
*RES
1 *842:X mem_addr[1] 47.0936 
*END

*D_NET *15 0.000936223
*CONN
*P mem_addr[2] O
*I *843:X O *D sky130_fd_sc_hd__buf_2
*CAP
1 mem_addr[2] 0.000447769
2 *843:X 0.000447769
3 mem_addr[2] *208:126 4.06849e-05
4 mem_addr[0] mem_addr[2] 0
*RES
1 *843:X mem_addr[2] 47.0936 
*END

*D_NET *16 0.000925633
*CONN
*P mem_addr[3] O
*I *844:X O *D sky130_fd_sc_hd__buf_2
*CAP
1 mem_addr[3] 0.000462816
2 *844:X 0.000462816
*RES
1 *844:X mem_addr[3] 47.0936 
*END

*D_NET *17 0.000944898
*CONN
*P mem_addr[4] O
*I *845:X O *D sky130_fd_sc_hd__buf_2
*CAP
1 mem_addr[4] 0.00045388
2 *845:X 0.00045388
3 mem_addr[4] mem_addr[5] 0
4 mem_addr[4] *845:A 3.71369e-05
*RES
1 *845:X mem_addr[4] 47.0936 
*END

*D_NET *18 0.000925633
*CONN
*P mem_addr[5] O
*I *846:X O *D sky130_fd_sc_hd__buf_2
*CAP
1 mem_addr[5] 0.000462816
2 *846:X 0.000462816
3 mem_addr[4] mem_addr[5] 0
*RES
1 *846:X mem_addr[5] 47.0936 
*END

*D_NET *19 0.000672771
*CONN
*P mem_addr[6] O
*I *847:X O *D sky130_fd_sc_hd__buf_2
*CAP
1 mem_addr[6] 0.000317007
2 *847:X 0.000317007
3 mem_addr[6] *210:14 0
4 mem_addr[6] *212:10 3.87577e-05
*RES
1 *847:X mem_addr[6] 48.5734 
*END

*D_NET *20 0.000762608
*CONN
*P mem_addr[7] O
*I *848:X O *D sky130_fd_sc_hd__buf_2
*CAP
1 mem_addr[7] 7.65184e-05
2 *848:X 0.000278539
3 *20:14 0.000355058
4 diag_addr[0] mem_addr[7] 2.12457e-05
5 diag_addr[7] mem_addr[7] 1.5289e-05
6 diag_addr[7] *20:14 1.59585e-05
*RES
1 *848:X *20:14 49.9 
2 *20:14 mem_addr[7] 0.382667 
*END

*D_NET *21 0.000856522
*CONN
*P mem_ce O
*I *849:X O *D sky130_fd_sc_hd__buf_2
*CAP
1 mem_ce 0.000290094
2 *849:X 0.000290094
3 mem_ce *798:A 0.00010873
4 mem_ce *823:A 7.90864e-05
5 mem_ce *849:A 8.85189e-05
*RES
1 *849:X mem_ce 49.2777 
*END

*D_NET *22 0.00124496
*CONN
*P mem_din[0] O
*I *850:X O *D sky130_fd_sc_hd__buf_2
*CAP
1 mem_din[0] 0.000177369
2 *850:X 0.000400237
3 *22:8 0.000577606
4 mem_din[0] mem_din[4] 8.97484e-05
5 *22:8 mem_din[3] 0
6 *22:8 *26:8 0
*RES
1 *850:X *22:8 46.0682 
2 *22:8 mem_din[0] 8.84373 
*END

*D_NET *23 0.000716995
*CONN
*P mem_din[1] O
*I *851:X O *D sky130_fd_sc_hd__buf_2
*CAP
1 mem_din[1] 0.000242529
2 *851:X 0.000242529
3 mem_din[1] mem_din[2] 7.90864e-05
4 mem_din[1] mem_din[6] 8.73764e-05
5 mem_din[1] *215:10 6.54744e-05
*RES
1 *851:X mem_din[1] 48.5734 
*END

*D_NET *24 0.000798278
*CONN
*P mem_din[2] O
*I *852:X O *D sky130_fd_sc_hd__buf_2
*CAP
1 mem_din[2] 0.000289016
2 *852:X 0.000289016
3 mem_din[2] mem_din[3] 0.000121039
4 mem_din[2] *215:10 9.86551e-06
5 mem_din[2] *219:10 1.02561e-05
6 mem_din[1] mem_din[2] 7.90864e-05
*RES
1 *852:X mem_din[2] 47.5083 
*END

*D_NET *25 0.000808663
*CONN
*P mem_din[3] O
*I *853:X O *D sky130_fd_sc_hd__buf_2
*CAP
1 mem_din[3] 0.000282107
2 *853:X 0.000282107
3 mem_din[3] mem_din[4] 0.00012341
4 mem_din[3] *26:8 0
5 mem_din[2] mem_din[3] 0.000121039
6 *22:8 mem_din[3] 0
*RES
1 *853:X mem_din[3] 48.2126 
*END

*D_NET *26 0.00127829
*CONN
*P mem_din[4] O
*I *854:X O *D sky130_fd_sc_hd__buf_2
*CAP
1 mem_din[4] 0.000306377
2 *854:X 0.000226189
3 *26:8 0.000532567
4 mem_din[0] mem_din[4] 8.97484e-05
5 mem_din[3] mem_din[4] 0.00012341
6 mem_din[3] *26:8 0
7 *22:8 *26:8 0
*RES
1 *854:X *26:8 42.5468 
2 *26:8 mem_din[4] 9.53067 
*END

*D_NET *27 0.000720045
*CONN
*P mem_din[5] O
*I *855:X O *D sky130_fd_sc_hd__buf_2
*CAP
1 mem_din[5] 0.000207548
2 *855:X 0.000207548
3 mem_din[5] mem_din[7] 8.68758e-05
4 mem_din[5] *840:A 7.46212e-05
5 done mem_din[5] 7.14428e-05
6 *12:10 mem_din[5] 7.20089e-05
*RES
1 *855:X mem_din[5] 47.8691 
*END

*D_NET *28 0.000618958
*CONN
*P mem_din[6] O
*I *856:X O *D sky130_fd_sc_hd__buf_2
*CAP
1 mem_din[6] 0.000222102
2 *856:X 0.000222102
3 mem_din[6] mem_din[7] 8.73764e-05
4 mem_din[6] *223:37 0
5 mem_din[6] *223:66 0
6 mem_din[1] mem_din[6] 8.73764e-05
*RES
1 *856:X mem_din[6] 47.8691 
*END

*D_NET *29 0.000805196
*CONN
*P mem_din[7] O
*I *857:X O *D sky130_fd_sc_hd__buf_2
*CAP
1 mem_din[7] 0.000308376
2 *857:X 0.000308376
3 mem_din[7] *840:A 5.58152e-06
4 mem_din[7] *221:8 8.61037e-06
5 mem_din[5] mem_din[7] 8.68758e-05
6 mem_din[6] mem_din[7] 8.73764e-05
*RES
1 *857:X mem_din[7] 47.5083 
*END

*D_NET *30 0.00101171
*CONN
*P mem_dout[0] I
*I *822:A I *D sky130_fd_sc_hd__clkbuf_1
*CAP
1 mem_dout[0] 0.000503997
2 *822:A 0.000503997
3 *822:A *824:A 0
4 *822:A *186:61 0
5 *822:A *194:10 3.7122e-06
*RES
1 mem_dout[0] *822:A 48.5643 
*END

*D_NET *31 0.00100871
*CONN
*P mem_dout[1] I
*I *824:A I *D sky130_fd_sc_hd__clkbuf_1
*CAP
1 mem_dout[1] 0.000494614
2 *824:A 0.000494614
3 *824:A *205:10 1.94812e-05
4 *822:A *824:A 0
*RES
1 mem_dout[1] *824:A 48.2743 
*END

*D_NET *32 0.000666589
*CONN
*P mem_dout[2] I
*I *825:A I *D sky130_fd_sc_hd__clkbuf_1
*CAP
1 mem_dout[2] 0.000320228
2 *825:A 0
3 *32:17 0.000320228
4 *32:17 *34:17 2.61329e-05
*RES
1 mem_dout[2] *32:17 27.1584 
2 *32:17 *825:A 23 
*END

*D_NET *33 0.000943708
*CONN
*P mem_dout[3] I
*I *826:A I *D sky130_fd_sc_hd__clkbuf_1
*CAP
1 mem_dout[3] 0.000444349
2 *826:A 0.000444349
3 *826:A *186:61 5.50106e-05
4 *826:A *262:10 0
*RES
1 mem_dout[3] *826:A 47.3214 
*END

*D_NET *34 0.000744793
*CONN
*P mem_dout[4] I
*I *827:A I *D sky130_fd_sc_hd__clkbuf_1
*CAP
1 mem_dout[4] 0.00035933
2 *827:A 0
3 *34:17 0.00035933
4 *34:17 *830:A 0
5 *32:17 *34:17 2.61329e-05
*RES
1 mem_dout[4] *34:17 28.2148 
2 *34:17 *827:A 23 
*END

*D_NET *35 0.000738147
*CONN
*P mem_dout[5] I
*I *828:A I *D sky130_fd_sc_hd__clkbuf_1
*CAP
1 mem_dout[5] 0.000321479
2 *828:A 0.000321479
3 *828:A pass_fail 3.49463e-05
4 *828:A *830:A 0
5 *828:A *36:17 2.12457e-05
6 *828:A *249:10 3.89972e-05
7 diag_addr[7] *828:A 0
*RES
1 mem_dout[5] *828:A 49.5439 
*END

*D_NET *36 0.000777366
*CONN
*P mem_dout[6] I
*I *829:A I *D sky130_fd_sc_hd__clkbuf_1
*CAP
1 mem_dout[6] 0.000362436
2 *829:A 0
3 *36:17 0.000362436
4 *36:17 *830:A 3.12475e-05
5 *36:17 *79:10 0
6 *828:A *36:17 2.12457e-05
*RES
1 mem_dout[6] *36:17 28.567 
2 *36:17 *829:A 23 
*END

*D_NET *37 0.000794147
*CONN
*P mem_dout[7] I
*I *830:A I *D sky130_fd_sc_hd__clkbuf_1
*CAP
1 mem_dout[7] 0.000353018
2 *830:A 0.000353018
3 *830:A *79:10 3.92407e-05
4 *830:A *176:10 1.76232e-05
5 *828:A *830:A 0
6 *34:17 *830:A 0
7 *36:17 *830:A 3.12475e-05
*RES
1 mem_dout[7] *830:A 48.0408 
*END

*D_NET *38 0.00117331
*CONN
*P mem_we O
*I *858:X O *D sky130_fd_sc_hd__buf_2
*CAP
1 mem_we 0.000148974
2 *858:X 0.000185812
3 *38:8 0.000334787
4 mem_we *823:A 8.73764e-05
5 mem_we *40:13 8.73764e-05
6 *38:8 *858:A 0.0002487
7 *38:8 *167:8 0
8 *38:8 *224:8 8.02832e-05
*RES
1 *858:X *38:8 42.8989 
2 *38:8 mem_we 8.84373 
*END

*D_NET *39 0.00102604
*CONN
*P pass_fail O
*I *859:X O *D sky130_fd_sc_hd__buf_2
*CAP
1 pass_fail 5.25196e-05
2 *859:X 0.000391101
3 *39:10 0.00044362
4 *39:10 *839:A 5.70419e-05
5 diag_addr[7] pass_fail 3.49463e-05
6 diag_addr[7] *39:10 1.18615e-05
7 *828:A pass_fail 3.49463e-05
*RES
1 *859:X *39:10 43.9346 
2 *39:10 pass_fail 8.32853 
*END

*D_NET *40 0.00325593
*CONN
*P rst I
*I *831:A I *D sky130_fd_sc_hd__clkbuf_1
*CAP
1 rst 0.00144847
2 *831:A 0
3 *40:13 0.00144847
4 *40:13 *823:A 0
5 *40:13 *91:12 3.44342e-05
6 *40:13 *91:16 1.01436e-05
7 *40:13 *183:174 9.41704e-05
8 *40:13 *265:10 7.53384e-06
9 *40:13 *266:18 4.70953e-05
10 done *40:13 7.82427e-05
11 mem_we *40:13 8.73764e-05
*RES
1 rst *40:13 28.1049 
2 *40:13 *831:A 23 
*END

*D_NET *41 0.00104965
*CONN
*P start I
*I *823:A I *D sky130_fd_sc_hd__buf_1
*CAP
1 start 0.000441595
2 *823:A 0.000441595
3 *823:A *798:A 0
4 *823:A *226:51 0
5 mem_ce *823:A 7.90864e-05
6 mem_we *823:A 8.73764e-05
7 *40:13 *823:A 0
*RES
1 start *823:A 48.8223 
*END

*D_NET *42 0.00123228
*CONN
*I *802:A I *D sky130_fd_sc_hd__dlygate4sd3_1
*I *635:X O *D sky130_fd_sc_hd__a211o_1
*CAP
1 *802:A 0
2 *635:X 0.000267052
3 *42:10 0.000267052
4 *42:10 *607:B 1.83667e-05
5 *42:10 *610:A 7.48994e-05
6 *42:10 *635:A1 5.3304e-05
7 *42:10 *635:A2 9.58714e-05
8 *42:10 *635:B1 5.12254e-05
9 *42:10 *110:44 1.697e-05
10 *42:10 *111:10 0.000135547
11 *42:10 *185:50 0.000158488
12 *42:10 *281:12 9.35072e-05
*RES
1 *635:X *42:10 44.7943 
2 *42:10 *802:A 38 
*END

*D_NET *43 0.00135771
*CONN
*I *734:D I *D sky130_fd_sc_hd__dfxtp_1
*I *612:X O *D sky130_fd_sc_hd__a22o_1
*CAP
1 *734:D 8.34356e-05
2 *612:X 0.00041242
3 *43:8 0.000495855
4 *734:D *191:18 0.000233161
5 *43:8 *612:A1 2.01531e-05
6 *43:8 *613:A 0
7 *43:8 *44:8 0
8 *43:8 *185:90 4.6318e-06
9 *43:8 *187:8 0
10 *43:8 *230:45 0
11 *43:8 *230:58 0.000108057
*RES
1 *612:X *43:8 45.54 
2 *43:8 *734:D 40.5737 
*END

*D_NET *44 0.00119117
*CONN
*I *735:D I *D sky130_fd_sc_hd__dfxtp_1
*I *614:X O *D sky130_fd_sc_hd__a31o_1
*CAP
1 *735:D 0.000386984
2 *614:X 8.47413e-05
3 *44:8 0.000471725
4 *735:D *230:45 5.50049e-05
5 *735:D *268:10 2.30292e-05
6 *44:8 *230:45 0.000169683
7 *43:8 *44:8 0
*RES
1 *614:X *44:8 40.2579 
2 *44:8 *735:D 45.338 
*END

*D_NET *45 0.000986862
*CONN
*I *744:D I *D sky130_fd_sc_hd__dfxtp_1
*I *615:Y O *D sky130_fd_sc_hd__nand2_1
*CAP
1 *744:D 6.8954e-05
2 *615:Y 0.00028531
3 *45:10 0.000354264
4 *744:D *277:6 1.5643e-05
5 *744:D *277:20 1.59094e-05
6 *45:10 *615:A 3.16665e-05
7 *45:10 *744:CLK 1.14452e-05
8 *45:10 *91:37 3.7122e-06
9 *45:10 *160:10 3.40295e-05
10 *45:10 *230:27 7.55491e-05
11 *45:10 *277:29 9.03784e-05
*RES
1 *615:Y *45:10 42.785 
2 *45:10 *744:D 38.9943 
*END

*D_NET *46 0.000611813
*CONN
*I *745:D I *D sky130_fd_sc_hd__dfxtp_1
*I *628:X O *D sky130_fd_sc_hd__a21o_1
*CAP
1 *745:D 4.18747e-05
2 *628:X 5.99934e-05
3 *46:8 0.000101868
4 *745:D *700:A 2.78283e-05
5 *745:D *186:24 4.72035e-05
6 *46:8 *191:10 0.000129504
7 *46:8 *191:12 3.70187e-05
8 *46:8 *267:44 0.000166522
*RES
1 *628:X *46:8 40.2579 
2 *46:8 *745:D 38.9943 
*END

*D_NET *47 0.00069683
*CONN
*I *746:D I *D sky130_fd_sc_hd__dfxtp_1
*I *617:X O *D sky130_fd_sc_hd__a32o_1
*CAP
1 *746:D 4.14256e-05
2 *617:X 6.51834e-05
3 *47:8 0.000106609
4 *746:D *188:20 5.65198e-05
5 *746:D *191:80 0.000143604
6 *47:8 *750:CLK 0.000110922
7 *47:8 *89:35 0.000135557
8 *47:8 *191:88 3.70094e-05
*RES
1 *617:X *47:8 39.9057 
2 *47:8 *746:D 39.6209 
*END

*D_NET *48 0.000502473
*CONN
*I *747:D I *D sky130_fd_sc_hd__dfxtp_1
*I *623:X O *D sky130_fd_sc_hd__a32o_1
*CAP
1 *747:D 2.7134e-05
2 *623:X 9.9543e-05
3 *48:8 0.000126677
4 *747:D *611:A 9.07294e-05
5 *747:D *97:60 1.94812e-05
6 *48:8 *97:47 2.5415e-05
7 *48:8 *97:60 8.62876e-05
8 *48:8 *187:8 2.72055e-05
9 *48:8 *191:12 0
10 *48:8 *191:18 0
*RES
1 *623:X *48:8 40.2579 
2 *48:8 *747:D 38.9943 
*END

*D_NET *49 0.000929595
*CONN
*I *748:D I *D sky130_fd_sc_hd__dfxtp_1
*I *625:X O *D sky130_fd_sc_hd__a2bb2o_1
*CAP
1 *748:D 2.58573e-05
2 *625:X 0.000245436
3 *49:8 0.000271293
4 *748:D *192:16 0.000146207
5 *748:D *281:8 0.000146207
6 *49:8 *105:8 0
7 *49:8 *192:26 0
8 *49:8 *231:38 0
9 *49:8 *234:40 6.07611e-06
10 *49:8 *266:8 8.85189e-05
11 *49:8 *280:68 0
12 *49:8 *281:12 0
*RES
1 *625:X *49:8 42.3707 
2 *49:8 *748:D 39.6209 
*END

*D_NET *50 0.0012641
*CONN
*I *749:D I *D sky130_fd_sc_hd__dfxtp_1
*I *629:X O *D sky130_fd_sc_hd__a32o_1
*CAP
1 *749:D 1.36537e-05
2 *629:X 0.00027995
3 *50:10 0.000293603
4 *50:10 *97:12 0.000310924
5 *50:10 *107:16 4.9662e-05
6 *50:10 *191:88 0.000316308
*RES
1 *629:X *50:10 43.4686 
2 *50:10 *749:D 38.1916 
*END

*D_NET *51 0.000868219
*CONN
*I *750:D I *D sky130_fd_sc_hd__dfxtp_2
*I *630:X O *D sky130_fd_sc_hd__a32o_1
*CAP
1 *750:D 7.17495e-06
2 *630:X 0.000241114
3 *51:10 0.000248289
4 *750:D *781:A 1.64354e-05
5 *750:D *283:39 1.64354e-05
6 *51:10 *640:A2 5.50049e-05
7 *51:10 *715:B1 0
8 *51:10 *188:20 2.91142e-05
9 *51:10 *279:10 0.000219873
10 *51:10 *283:10 0
11 *51:10 *283:43 3.47781e-05
*RES
1 *630:X *51:10 42.9921 
2 *51:10 *750:D 38.1916 
*END

*D_NET *52 0.000318973
*CONN
*I *736:D I *D sky130_fd_sc_hd__dfxtp_1
*I *647:X O *D sky130_fd_sc_hd__a21o_1
*CAP
1 *736:D 7.42939e-05
2 *647:X 8.51925e-05
3 *52:8 0.000159486
4 *52:8 *121:24 0
*RES
1 *647:X *52:8 39.2014 
2 *52:8 *736:D 39.3102 
*END

*D_NET *53 0.00171257
*CONN
*I *737:D I *D sky130_fd_sc_hd__dfxtp_1
*I *649:X O *D sky130_fd_sc_hd__a21o_1
*CAP
1 *737:D 0.000246276
2 *649:X 0.000201367
3 *53:14 0.000447644